*Heading
** Job name: Bar_Necking Model name: Model-1
** Generated by: Abaqus/CAE 6.14-1
*Preprint, echo=NO, model=NO, history=NO, contact=NO
**
** PARTS
**
*Part, name=Cylinder
*Node
1, 0.000000, 0.000000, 0.000000
2, 0.635000, 0.000000, 0.000000
3, 1.270000, 0.000000, 0.000000
4, 1.905000, 0.000000, 0.000000
5, 2.540000, 0.000000, 0.000000
6, 3.175000, 0.000000, 0.000000
7, 3.810000, 0.000000, 0.000000
8, 4.445000, 0.000000, 0.000000
9, 5.080000, 0.000000, 0.000000
10, 5.715000, 0.000000, 0.000000
11, 6.350000, 0.000000, 0.000000
12, 0.000000, 0.444500, 0.000000
13, 0.635105, 0.444500, 0.000000
14, 1.270210, 0.444500, 0.000000
15, 1.905315, 0.444500, 0.000000
16, 2.540420, 0.444500, 0.000000
17, 3.175525, 0.444500, 0.000000
18, 3.810630, 0.444500, 0.000000
19, 4.445735, 0.444500, 0.000000
20, 5.080840, 0.444500, 0.000000
** ... 431 like lines cut
*Element, type=CAX4R
1, 1, 2, 13, 12
2, 2, 3, 14, 13
3, 3, 4, 15, 14
4, 4, 5, 16, 15
5, 5, 6, 17, 16
6, 6, 7, 18, 17
7, 7, 8, 19, 18
8, 8, 9, 20, 19
9, 9, 10, 21, 20
10, 10, 11, 22, 21
11, 12, 13, 24, 23
12, 13, 14, 25, 24
13, 14, 15, 26, 25
14, 15, 16, 27, 26
15, 16, 17, 28, 27
16, 17, 18, 29, 28
17, 18, 19, 30, 29
18, 19, 20, 31, 30
19, 20, 21, 32, 31
20, 21, 22, 33, 32
** ... 380 like lines cut
*Nset, nset=Set-1, generate
   1,  451,    1
*Elset, elset=Set-1, generate
   1,  400,    1
** Section: Section-1
*Solid Section, elset=Set-1, material=Steel
,
*End Part
**  
**
** ASSEMBLY
**
*Assembly, name=Assembly
**  
*Instance, name=Cylinder-1, part=Cylinder
*End Instance
**  
*Nset, nset=Set-1, instance=Cylinder-1, generate
1, 441, 11
*Nset, nset=Set-2, instance=Cylinder-1, generate
1, 11, 1
*Nset, nset=Set-3, instance=Cylinder-1, generate
441, 451, 1
*End Assembly
*Amplitude, name=Amp-1
 0., 0., 0.001, 1.
** 
** MATERIALS
** 
*Material, name=Steel
*Conductivity
34.0,
*Density
 7.83e-09,
*Elastic
206000., 0.3
*Expansion
 1.23e-05,
*Inelastic Heat Fraction
 0.9,
*Plastic, hardening=JOHNSON COOK
806.,  614., 0.168,   1.1, 1540.,  20.
*Rate Dependent, type=JOHNSON COOK
 0.0089,1.
*Specific Heat
4.6e+08,
** 
** PREDEFINED FIELDS
** 
** Name: Predefined Field-1   Type: Temperature
*Initial Conditions, type=TEMPERATURE
Cylinder-1.Set-1, 20.
** ----------------------------------------------------------------
** 
** STEP: Step-1
** 
*Step, name=Step-1, nlgeom=YES
*Dynamic, Explicit, adiabatic, element by element
, 0.001
*Bulk Viscosity
0.06, 1.2
** 
** BOUNDARY CONDITIONS
** 
** Name: BC-1 Type: Displacement/Rotation
*Boundary
Set-1, 1, 1
Set-1, 6, 6
** Name: BC-2 Type: Displacement/Rotation
*Boundary
Set-2, 2, 2
Set-2, 6, 6
** Name: BC-3 Type: Displacement/Rotation
*Boundary, amplitude=Amp-1
Set-3, 2, 2, 7.
** 
** OUTPUT REQUESTS
** 
*Restart, write, number interval=1, time marks=NO
** 
** FIELD OUTPUT: F-Output-1
** 
*Output, field
*Node Output
A, RF, U, V
*Element Output, directions=YES
ER, ERV, EVF, LE, PE, PEEQ, PEEQVAVG, PEVAVG, S, SVAVG, TEMP, TEMPMAVG, DENSITY
*Contact Output
CSTRESS, 
** 
** HISTORY OUTPUT: H-Output-1
** 
*Output, history
*Energy Output
ALLAE, ALLCD, ALLDMD, ALLFD, ALLIE, ALLKE, ALLPD, ALLSE, ALLVD, ALLWK, ETOTAL
** 
** HISTORY OUTPUT: H-Output-2
** 
*Output, history, time interval=1e-5
*Element Output, elset=Cylinder-1.Set-1
MISES, PEEQ, TEMP, DENSITY
*Node Output, nset=Cylinder-1.Set-1
U, COORD
*Energy output
ALLKE
*Incrementation Output
DT
*End Step
